grid_simulations/tests/Result_no_control/output_current_16.csv
# Result_no_control/output_current_16.csv run at 2000-01-01 16:00:00 EST on 907 links
link_name,currA_mag,currA_angle,currB_mag,currB_angle,currC_mag,currC_angle
Source_Impedance,30.498906,-0.363650,24.402429,3.755336,26.330918,1.901726
TR1,30.498906,-0.363650,24.402429,3.755336,26.330918,1.901726
LINE1,842.693693,-0.833043,749.462157,3.311520,545.742245,1.244401
LINE2,842.693693,-0.833043,749.462157,3.311520,545.742245,1.244401
LINE3,842.693693,-0.833043,749.462157,3.311520,545.742245,1.244401
LINE4,842.693693,-0.833043,749.462157,3.311520,545.742245,1.244401
LINE5,842.693693,-0.833043,749.462157,3.311520,545.742245,1.244401
LINE6,842.693693,-0.833043,749.462157,3.311520,545.742245,1.244401
LINE7,842.693693,-0.833043,749.462157,3.311520,545.742245,1.244401
LINE8,842.693693,-0.833043,749.462157,3.311520,545.742245,1.244401
LINE9,842.693693,-0.833043,749.462157,3.311520,545.742245,1.244401
LINE10,842.693693,-0.833043,749.462157,3.311520,545.742245,1.244401
LINE11,842.693693,-0.833043,749.462157,3.311520,545.742245,1.244401
LINE12,842.693693,-0.833043,749.462157,3.311520,545.742245,1.244401
LINE13,842.693693,-0.833043,749.462157,3.311520,545.742245,1.244401
LINE14,842.693693,-0.833043,749.462157,3.311520,545.742245,1.244401
LINE15,0.000000,-0.857913,0.000000,2.009512,0.000000,1.588119
LINE16,842.693693,-0.833043,749.462157,3.311520,545.742245,1.244401
LINE17,0.000000,-0.757747,0.000000,1.545864,0.000000,1.589587
LINE18,842.693693,-0.833043,749.462157,3.311520,545.742245,1.244401
LINE19,0.000000,-0.612935,0.000000,1.545864,0.000000,1.595823
LINE20,842.693693,-0.833043,749.462157,3.311520,545.742245,1.244401
LINE21,0.000000,-0.952227,0.000000,1.545864,0.000000,1.581564
LINE22,842.693693,-0.833043,749.462157,3.311520,545.742245,1.244401
LINE23,0.000000,-0.810330,0.000000,2.721870,0.000000,1.572644
LINE24,842.693693,-0.833043,749.462157,3.311520,545.742245,1.244401
LINE25,0.000000,-0.537321,0.000000,3.054242,0.000000,1.554793
LINE26,70.636909,-0.865648,0.000000,4.425315,0.000000,1.558609
LINE27,772.097761,-0.830061,749.462157,3.311520,545.742245,1.244401
LINE28,0.000000,-0.437342,0.000000,2.951512,0.000000,1.541958
LINE29,35.314301,-0.865677,0.000000,4.583385,0.000000,4.659010
LINE30,35.322607,-0.865619,0.000000,4.376756,0.000000,1.559602
LINE31,772.097761,-0.830061,749.462157,3.311520,545.742245,1.244401
LINE32,0.000000,-0.453196,0.000000,2.999552,0.000000,1.547285
LINE33,35.314301,-0.865677,0.000000,1.930113,0.000000,2.984468
LINE34,35.322607,-0.865619,0.000000,-0.892894,0.000000,1.582491
LINE35,0.000000,-0.043202,71.824572,3.316543,0.000000,4.690767
LINE36,772.097761,-0.830061,677.638586,3.310987,545.742245,1.244401
LINE37,0.000000,-0.409537,0.000000,2.974764,0.000000,1.555807
LINE38,35.322607,-0.865619,0.000000,3.874963,0.000000,1.568992
LINE39,0.000000,-0.724480,35.913198,3.316549,0.000000,4.685320
LINE40,0.000000,2.679116,35.911374,3.316536,0.000000,4.668149
LINE41,772.097761,-0.830061,677.638586,3.310987,545.742245,1.244401
LINE42,0.000000,0.352928,0.000000,3.381489,0.000000,-1.284484
LINE43,0.000000,-0.383703,0.000000,2.871682,0.000000,1.545864
LINE44,35.322607,-0.865619,0.000000,-0.503809,0.000000,1.575629
LINE45,0.000000,0.248175,35.913198,3.316549,0.000000,4.675601
LINE46,0.000000,1.745168,35.911374,3.316536,0.000000,1.500271
LINE47,772.097761,-0.830061,677.638586,3.310987,545.742245,1.244401
LINE48,0.000000,0.484651,0.000000,3.261112,0.000000,-1.314734
LINE49,0.000000,-0.222327,0.000000,4.687457,0.000000,1.530241
LINE50,35.322607,-0.865619,0.000000,0.071665,0.000000,1.752438
LINE51,0.000000,-1.059842,35.913198,3.316549,0.000000,4.695121
LINE52,772.097761,-0.830061,677.638586,3.310987,545.742245,1.244401
LINE53,0.000000,0.826634,0.000000,0.634270,0.000000,1.077479
LINE54,0.000000,0.831108,0.000000,3.169421,0.000000,-1.439392
LINE55,0.000000,-0.327817,0.000000,-0.269911,0.000000,1.520870
LINE56,35.322607,-0.865619,0.000000,-0.085123,0.000000,1.594069
LINE57,0.000000,-0.279247,35.913198,3.316549,0.000000,4.692291
LINE58,772.097761,-0.830061,677.638586,3.310987,545.742245,1.244401
LINE59,0.000000,1.131292,0.000000,0.587381,0.000000,0.978952
LINE60,0.000000,0.816602,0.000000,3.309866,0.000000,-1.362333
LINE61,0.000000,-0.269911,0.000000,0.099423,0.000000,1.527117
LINE62,35.322607,-0.865619,0.000000,2.437613,0.000000,1.661569
LINE63,0.000000,0.278684,35.913198,3.316549,0.000000,4.699145
LINE64,697.429127,-0.827775,677.638586,3.310987,545.742245,1.244401
LINE65,74.687477,-0.851410,0.000000,1.087471,0.000000,4.491076
LINE66,0.000000,1.337304,0.000000,0.421399,0.000000,1.069330
LINE67,0.000000,0.668778,0.000000,3.247021,0.000000,-1.416700
LINE68,0.000000,-0.405438,0.000000,-0.024932,0.000000,1.499024
LINE69,35.322607,-0.865619,0.000000,-0.731251,0.000000,2.463003
LINE70,0.000000,4.035210,35.913198,3.316549,0.000000,4.703751
LINE71,697.429127,-0.827775,677.638586,3.310987,545.742245,1.244401
LINE72,37.343738,-0.851410,0.000000,0.092766,0.000000,1.592609
LINE73,37.343738,-0.851410,0.000000,0.092864,0.000000,1.578583
LINE74,0.000000,0.841053,0.000000,0.386611,0.000000,0.992651
LINE75,0.000000,1.218273,0.000000,3.165609,0.000000,-1.380999
LINE76,0.000000,-0.316389,0.000000,0.046376,0.000000,1.480852
LINE77,0.000000,2.609774,35.913198,3.316549,0.000000,0.430285
LINE78,697.429127,-0.827775,677.638586,3.310987,545.742245,1.244401
LINE79,0.000000,-0.246315,0.000000,-0.173588,0.000000,0.782825
LINE80,0.000000,1.120868,0.000000,3.168183,0.000000,-1.368310
LINE81,0.000000,-0.255152,0.000000,-0.005704,0.000000,1.470117
LINE82,0.000000,0.808819,35.913198,3.316549,0.000000,3.716514
LINE83,697.429127,-0.827775,677.638586,3.310987,545.742245,1.244401
LINE84,0.000000,-0.465709,0.000000,0.326393,0.000000,-0.056842
LINE85,0.000000,1.136642,0.000000,3.190180,0.000000,-1.406702
LINE86,0.000000,-0.293298,0.000000,-0.024932,0.000000,1.501622
LINE87,697.429127,-0.827775,677.638586,3.310987,545.742245,1.244401
LINE88,0.000000,-0.201631,0.000000,-0.201631,0.000000,2.997100
LINE89,0.000000,1.198745,0.000000,3.241187,0.000000,-1.418335
LINE90,0.000000,-0.327817,0.000000,-0.024932,0.000000,1.493828
LINE91,697.429127,-0.827775,677.638586,3.310987,545.742245,1.244401
LINE92,0.000000,0.876772,0.000000,2.924172,0.000000,-1.276412
LINE93,0.000000,-0.269911,0.000000,-0.024932,0.000000,-0.024932
LINE94,697.429127,-0.827775,677.638586,3.310987,545.742245,1.244401
LINE95,0.000000,1.154527,0.000000,3.033158,0.000000,4.688559
LINE96,0.000000,0.000000,0.000000,-0.024932,0.000000,-1.548888
LINE97,697.429127,-0.827775,677.638586,3.310987,545.742245,1.244401
LINE98,0.000000,1.174657,0.000000,3.264311,0.000000,1.832382
LINE99,0.000000,-0.024932,0.000000,2.331263,0.000000,-1.564488
LINE100,697.429127,-0.827775,677.638586,3.310987,545.742245,1.244401
LINE101,0.000000,-0.696183,0.000000,3.121964,0.000000,1.139260
LINE102,0.000000,0.000000,0.000000,0.000000,0.000000,0.000000
LINE103,38.074026,-0.846563,113.608472,3.317352,71.540865,1.240841
LINE104,659.362209,-0.826690,564.032879,3.309705,474.201902,1.244938
LINE105,0.000000,-0.575789,0.000000,2.970581,0.000000,1.281073
LINE106,38.074026,-0.846563,113.608472,3.317352,71.540865,1.240841
LINE107,659.362209,-0.826690,564.032879,3.309705,474.201902,1.244938
LINE108,0.000000,-0.474792,0.000000,2.819974,0.000000,1.089316
LINE109,38.074026,-0.846563,113.608472,3.317352,71.540865,1.240841
LINE110,659.362209,-0.826690,564.032879,3.309705,474.201902,1.244938
LINE111,0.000000,-0.539627,0.000000,2.807806,0.000000,1.104099
LINE112,38.074026,-0.846563,113.608472,3.317352,71.540865,1.240841
LINE113,659.362209,-0.826690,564.032879,3.309705,474.201902,1.244938
LINE114,0.000000,-0.534562,0.000000,2.803380,0.000000,1.137851
LINE115,38.074026,-0.846563,113.608472,3.317352,71.540865,1.240841
LINE116,38.546763,-0.843956,76.429539,3.317610,71.968036,1.242503
LINE117,620.821548,-0.825618,487.606103,3.308466,402.234118,1.245374
LINE118,0.000000,-0.542492,0.000000,2.788513,0.000000,1.053333
LINE119,38.074026,-0.846563,113.608472,3.317352,71.540865,1.240841
LINE120,0.000000,2.189366,0.000000,0.760466,0.000000,4.681598
LINE121,38.546763,-0.843956,76.429539,3.317610,71.968036,1.242503
LINE122,620.821548,-0.825618,487.606103,3.308466,402.234118,1.245374
LINE123,0.000000,-0.581378,0.000000,2.790023,0.000000,0.733289
LINE124,38.074026,-0.846563,113.608472,3.317352,71.540865,1.240841
LINE125,0.000000,2.133867,0.000000,1.082217,0.000000,4.691363
LINE126,38.546763,-0.843956,76.429539,3.317610,71.968036,1.242503
LINE127,620.821548,-0.825618,487.606103,3.308466,402.234118,1.245374
LINE128,0.000000,-0.539771,0.000000,2.828920,0.000000,0.321154
LINE129,38.074026,-0.846563,113.608472,3.317352,71.540865,1.240841
LINE130,0.000000,2.009512,0.000000,0.438716,0.000000,4.695269
LINE131,38.546763,-0.843956,0.000000,-0.719803,0.000000,1.597728
LINE132,0.000000,0.433456,76.429539,3.317610,71.968036,1.242503
LINE133,620.821548,-0.825618,487.606103,3.308466,402.234118,1.245374
LINE134,0.000000,-0.536557,0.000000,2.760238,0.000000,0.342741
LINE135,38.074026,-0.846563,113.608472,3.317352,71.540865,1.240841
LINE136,0.000000,0.957862,0.000000,0.438716,0.000000,4.698617
LINE137,38.546763,-0.843956,0.000000,-0.833909,0.000000,1.600669
LINE138,0.000000,0.452231,76.429539,3.317610,71.968036,1.242503
LINE139,620.821548,-0.825618,487.606103,3.308466,402.234118,1.245374
LINE140,0.000000,-0.520725,0.000000,2.786369,0.000000,0.458250
LINE141,38.074026,-0.846563,113.608472,3.317352,71.540865,1.240841
LINE142,0.000000,1.545864,0.000000,0.438716,0.000000,4.695269
LINE143,38.546763,-0.843956,0.000000,-0.863892,0.000000,1.601587
LINE144,0.000000,0.499435,76.429539,3.317610,71.968036,1.242503
LINE145,620.821548,-0.825618,487.606103,3.308466,402.234118,1.245374
LINE146,0.000000,-0.609451,0.000000,2.860247,0.000000,0.966185
LINE147,38.074026,-0.846563,113.608472,3.317352,71.540865,1.240841
LINE148,0.000000,1.545864,0.000000,1.545864,0.000000,4.692665
LINE149,38.546763,-0.843956,0.000000,-0.750560,0.000000,1.597923
LINE150,0.000000,0.836225,0.000000,-0.024086,71.968036,1.242503
LINE151,0.000000,-0.370366,76.429539,3.317610,0.000000,-1.533423
LINE152,620.821548,-0.825618,487.606103,3.308466,402.234118,1.245374
LINE153,0.000000,-0.325623,0.000000,3.065701,0.000000,4.074174
LINE154,38.074026,-0.846563,113.608472,3.317352,71.540865,1.240841
LINE155,0.000000,0.438716,0.000000,3.902059,0.000000,4.701128
LINE156,38.546763,-0.843956,0.000000,-0.721091,0.000000,1.593300
LINE157,0.000000,0.906163,0.000000,-0.031107,71.968036,1.242503
LINE158,0.000000,-0.355337,76.429539,3.317610,0.000000,-1.524293
LINE159,620.821548,-0.825618,487.606103,3.308466,402.234118,1.245374
LINE160,0.000000,0.173814,0.000000,-1.372173,0.000000,1.667631
LINE161,0.000000,-1.348050,37.756220,3.317100,0.000000,-1.561139
LINE162,38.074026,-0.846563,75.852253,3.317478,71.540865,1.240841
LINE163,0.000000,2.133867,0.000000,-0.488580,0.000000,4.705921
LINE164,38.546763,-0.843956,0.000000,-0.802608,0.000000,1.597210
LINE165,0.000000,0.855527,0.000000,-0.026177,71.968036,1.242503
LINE166,0.000000,-0.241484,76.429539,3.317610,0.000000,-1.523426
LINE167,620.821548,-0.825618,487.606103,3.308466,402.234118,1.245374
LINE168,0.000000,1.535421,0.000000,2.946954,0.000000,4.418429
LINE169,0.000000,3.949920,37.756220,3.317100,0.000000,1.631287
LINE170,38.074026,-0.846563,75.852253,3.317478,71.540865,1.240841
LINE171,0.000000,2.653013,0.000000,2.331263,0.000000,4.708287
LINE172,38.546763,-0.843956,0.000000,-0.783017,0.000000,1.602267
LINE173,0.000000,0.712850,0.000000,-0.052766,0.000000,2.562250
LINE174,0.000000,2.978868,0.000000,1.025202,71.968036,1.242503
LINE175,0.000000,-0.181286,76.429539,3.317610,0.000000,-1.526152
LINE176,620.821548,-0.825618,487.606103,3.308466,402.234118,1.245374
LINE177,0.000000,1.619045,37.756220,3.317100,0.000000,4.651809
LINE178,38.074026,-0.846563,75.852253,3.317478,0.000000,4.696206
LINE179,0.000000,-1.102659,0.000000,4.303769,71.540865,1.240841
LINE180,0.000000,1.545864,0.000000,0.760466,0.000000,-1.556686
LINE181,38.546763,-0.843956,0.000000,-0.696267,0.000000,1.605985
LINE182,0.000000,0.932390,0.000000,-0.084275,0.000000,2.491820
LINE183,0.000000,2.983140,0.000000,1.106851,71.968036,1.242503
LINE184,0.000000,0.078551,76.429539,3.317610,0.000000,-1.522373
LINE185,620.821548,-0.825618,487.606103,3.308466,402.234118,1.245374
LINE186,38.074026,-0.846563,75.852253,3.317478,0.000000,-1.528612
LINE187,0.000000,-1.132121,0.000000,4.311774,71.540865,1.240841
LINE188,0.000000,-0.024932,0.000000,2.331263,0.000000,-1.548888
LINE189,38.546763,-0.843956,0.000000,-0.676159,0.000000,1.602592
LINE190,0.000000,1.153367,0.000000,2.029794,0.000000,4.211609
LINE191,0.000000,0.410912,0.000000,-0.174001,0.000000,2.342127
LINE192,0.000000,3.020838,0.000000,1.021830,71.968036,1.242503
LINE193,0.000000,-0.166362,76.429539,3.317610,0.000000,-1.509699
LINE194,620.821548,-0.825618,487.606103,3.308466,402.234118,1.245374
LINE195,38.074026,-0.846563,75.852253,3.317478,0.000000,-1.519494
LINE196,0.000000,0.109535,0.000000,1.676192,35.766337,1.240812
LINE197,0.000000,-1.094682,0.000000,4.360641,35.774528,1.240869
LINE198,0.000000,2.653013,0.000000,1.545864,0.000000,-1.564488
LINE199,38.546763,-0.843956,0.000000,-0.762657,0.000000,1.603846
LINE200,0.000000,3.492758,0.000000,-0.466277,0.000000,4.710551
LINE201,0.000000,4.070924,0.000000,-0.197792,0.000000,2.020982
LINE202,0.000000,3.008325,0.000000,0.842569,71.968036,1.242503
LINE203,0.000000,-0.300952,76.429539,3.317610,0.000000,-1.502707
LINE204,620.821548,-0.825618,487.606103,3.308466,402.234118,1.245374
LINE205,38.074026,-0.846563,0.000000,3.298403,0.000000,1.740377
LINE206,0.000000,4.578562,75.852253,3.317478,0.000000,4.587779
LINE207,0.000000,3.423300,0.000000,3.173270,35.766337,1.240812
LINE208,0.000000,-0.904238,0.000000,4.539027,35.774528,1.240869
LINE209,0.000000,1.545864,0.000000,2.653013,0.000000,4.710890
LINE210,38.546763,-0.843956,0.000000,-0.809718,0.000000,1.598935
LINE211,0.000000,2.736401,0.000000,-0.212832,0.000000,1.500008
LINE212,0.000000,3.086915,0.000000,0.986409,71.968036,1.242503
LINE213,0.000000,-0.072895,76.429539,3.317610,0.000000,-1.514540
LINE214,620.821548,-0.825618,487.606103,3.308466,402.234118,1.245374
LINE215,38.074026,-0.846563,0.000000,2.536720,0.000000,1.845874
LINE216,0.000000,4.596071,75.852253,3.317478,0.000000,-1.531324
LINE217,0.000000,-0.915793,0.000000,3.734570,35.774528,1.240869
LINE218,0.000000,0.000000,0.000000,0.000000,0.000000,3.116661
LINE219,38.546763,-0.843956,0.000000,-0.764030,0.000000,1.599924
LINE220,0.000000,2.536703,0.000000,-0.281389,0.000000,1.149026
LINE221,0.000000,2.973710,0.000000,1.212266,71.968036,1.242503
LINE222,0.000000,-0.255398,76.429539,3.317610,0.000000,-1.519271
LINE223,620.821548,-0.825618,487.606103,3.308466,402.234118,1.245374
LINE224,38.074026,-0.846563,0.000000,3.825390,0.000000,1.678002
LINE225,0.000000,-0.948954,75.852253,3.317478,0.000000,4.430250
LINE226,0.000000,4.447909,0.000000,-0.950849,35.774528,1.240869
LINE227,38.546763,-0.843956,0.000000,-0.761211,0.000000,1.597472
LINE228,0.000000,2.348963,0.000000,-0.091186,0.000000,1.229026
LINE229,0.000000,2.967519,0.000000,1.225685,71.968036,1.242503
LINE230,0.000000,0.115069,76.429539,3.317610,0.000000,-1.510497
LINE231,620.821548,-0.825618,487.606103,3.308466,402.234118,1.245374
LINE232,0.000000,0.805740,75.852253,3.317478,0.000000,1.616592
LINE233,0.000000,2.968559,0.000000,-0.198070,0.000000,4.105088
LINE234,0.000000,-0.559814,0.000000,3.649191,35.774528,1.240869
LINE235,38.546763,-0.843956,0.000000,4.582612,0.000000,1.573360
LINE236,0.000000,2.189964,0.000000,-0.433675,0.000000,1.450980
LINE237,0.000000,3.203396,0.000000,1.905146,71.968036,1.242503
LINE238,0.000000,0.130269,76.429539,3.317610,0.000000,-1.505720
LINE239,620.821548,-0.825618,487.606103,3.308466,402.234118,1.245374
LINE240,0.000000,-0.200885,75.852253,3.317478,0.000000,1.579105
LINE241,0.000000,-0.559190,0.000000,2.655048,35.774528,1.240869
LINE242,38.546763,-0.843956,0.000000,-1.221243,0.000000,1.559760
LINE243,0.000000,0.466459,0.000000,-0.277337,0.000000,1.791285
LINE244,0.000000,2.995585,0.000000,2.434390,71.968036,1.242503
LINE245,0.000000,0.475838,76.429539,3.317610,0.000000,-1.517436
LINE246,620.821548,-0.825618,487.606103,3.308466,402.234118,1.245374
LINE247,0.000000,1.188628,37.926127,3.317478,0.000000,4.285038
LINE248,0.000000,1.188628,37.926127,3.317478,0.000000,4.285038
LINE249,0.000000,0.943515,0.000000,0.072769,35.774528,1.240869
LINE250,38.546763,-0.843956,0.000000,-0.652539,0.000000,1.627418
LINE251,0.000000,0.652836,0.000000,-0.048041,0.000000,2.033758
LINE252,0.000000,2.782231,0.000000,2.143384,71.968036,1.242503
LINE253,0.000000,0.450761,76.429539,3.317610,0.000000,-1.516423
LINE254,39.611512,-0.839986,0.000000,0.135148,0.000000,4.660001
LINE255,581.214403,-0.824639,487.606103,3.308466,402.234118,1.245374
LINE256,0.000000,-0.580511,0.000000,1.619908,35.774528,1.240869
LINE257,38.546763,-0.843956,0.000000,-0.892276,0.000000,1.602660
LINE258,0.000000,0.294292,0.000000,-0.105829,0.000000,2.340109
LINE259,0.000000,2.813175,0.000000,1.814135,71.968036,1.242503
LINE260,0.000000,0.454617,76.429539,3.317610,0.000000,-1.515836
LINE261,39.611512,-0.839986,0.000000,0.136066,0.000000,4.646050
LINE262,581.214403,-0.824639,487.606103,3.308466,402.234118,1.245374
LINE263,0.000000,3.791101,0.000000,-0.201118,35.774528,1.240869
LINE264,38.546763,-0.843956,0.000000,-0.257448,0.000000,1.747479
LINE265,0.000000,-0.340717,0.000000,-0.340717,0.000000,2.038648
LINE266,0.000000,2.784744,0.000000,1.937170,71.968036,1.242503
LINE267,0.000000,-0.590319,38.222619,3.317661,0.000000,-1.548697
LINE268,0.000000,1.130505,38.206920,3.317560,0.000000,-1.544770
LINE269,39.611512,-0.839986,0.000000,0.105719,0.000000,4.613873
LINE270,0.000000,-1.023926,0.000000,3.379210,36.243464,1.245679
LINE271,581.214403,-0.824639,487.606103,3.308466,365.990655,1.245344
LINE272,38.546763,-0.843956,0.000000,-0.017670,0.000000,2.524347
LINE273,0.000000,-0.520985,0.000000,0.271215,0.000000,1.601731
LINE274,0.000000,2.742009,0.000000,2.206996,71.968036,1.242503
LINE275,0.000000,1.858801,38.222619,3.317661,0.000000,1.445404
LINE276,0.000000,1.793175,38.206920,3.317560,0.000000,-1.559517
LINE277,39.611512,-0.839986,0.000000,0.138904,0.000000,4.599804
LINE278,0.000000,-1.047822,0.000000,3.414990,36.243464,1.245679
LINE279,581.214403,-0.824639,487.606103,3.308466,365.990655,1.245344
LINE280,38.546763,-0.843956,0.000000,3.663984,0.000000,1.529272
LINE281,0.000000,-0.883369,0.000000,3.214025,0.000000,2.420761
LINE282,0.000000,2.857582,0.000000,2.888700,71.968036,1.242503
LINE283,0.000000,2.270615,38.206920,3.317560,0.000000,-1.548279
LINE284,39.611512,-0.839986,0.000000,0.185390,0.000000,4.561148
LINE285,0.000000,-0.877676,0.000000,3.487770,36.243464,1.245679
LINE286,290.867791,-0.822825,161.745297,3.302919,72.262221,1.247174
LINE287,290.347570,-0.826455,325.864530,3.311220,293.728584,1.244894
LINE288,38.546763,-0.843956,0.000000,-0.542809,0.000000,4.345920
LINE289,0.000000,3.488288,0.000000,2.649929,0.000000,4.210048
LINE290,0.000000,-0.641984,0.000000,3.347126,35.995949,1.242585
LINE291,0.000000,2.795505,0.000000,3.012415,35.972087,1.242421
LINE292,0.000000,1.125215,38.206920,3.317560,0.000000,-1.486961
LINE293,39.611512,-0.839986,0.000000,0.200818,0.000000,4.514183
LINE294,0.000000,-0.971938,0.000000,3.489515,36.243464,1.245679
LINE295,290.867791,-0.822825,161.745297,3.302919,72.262221,1.247174
LINE296,290.347570,-0.826455,325.864530,3.311220,293.728584,1.244894
LINE297,0.000000,-0.412916,0.000000,3.430912,35.995949,1.242585
LINE298,0.000000,3.703161,0.000000,3.423395,35.972087,1.242421
LINE299,0.000000,1.839886,38.206920,3.317560,0.000000,-1.498605
LINE300,39.611512,-0.839986,0.000000,0.238497,0.000000,4.278776
LINE301,0.000000,-0.852407,0.000000,3.492447,36.243464,1.245679
LINE302,290.867791,-0.822825,161.745297,3.302919,72.262221,1.247174
LINE303,290.347570,-0.826455,325.864530,3.311220,293.728584,1.244894
LINE304,0.000000,1.194356,0.000000,3.409473,35.995949,1.242585
LINE305,0.000000,0.032962,0.000000,0.719678,35.972087,1.242421
LINE306,0.000000,2.007534,38.206920,3.317560,0.000000,-1.550538
LINE307,39.611512,-0.839986,0.000000,0.225876,0.000000,2.506853
LINE308,0.000000,-0.529980,0.000000,3.397698,36.243464,1.245679
LINE309,290.867791,-0.822825,161.745297,3.302919,72.262221,1.247174
LINE310,290.347570,-0.826455,325.864530,3.311220,293.728584,1.244894
LINE311,0.000000,2.129058,0.000000,3.093937,35.995949,1.242585
LINE312,0.000000,-0.455142,0.000000,0.353264,35.972087,1.242421
LINE313,0.000000,-1.287977,38.206920,3.317560,0.000000,1.569204
LINE314,39.611512,-0.839986,0.000000,0.234032,0.000000,1.873871
LINE315,0.000000,4.157185,0.000000,3.659649,36.243464,1.245679
LINE316,80.598025,-0.835758,0.000000,3.334554,0.000000,-1.518594
LINE317,210.279088,-0.817869,161.745297,3.302919,72.262221,1.247174
LINE318,290.347570,-0.826455,325.864530,3.311220,293.728584,1.244894
LINE319,0.000000,-0.748055,0.000000,4.484553,35.995949,1.242585
LINE320,0.000000,3.272572,0.000000,2.166947,35.972087,1.242421
LINE321,39.611512,-0.839986,0.000000,0.190912,0.000000,2.283673
LINE322,0.000000,4.101056,0.000000,0.690383,36.243464,1.245679
LINE323,80.598025,-0.835758,0.000000,3.267533,0.000000,-1.517927
LINE324,210.279088,-0.817869,161.745297,3.302919,72.262221,1.247174
LINE325,290.347570,-0.826455,325.864530,3.311220,293.728584,1.244894
LINE326,0.000000,0.135953,0.000000,2.906575,35.972087,1.242421
LINE327,39.611512,-0.839986,0.000000,0.218051,0.000000,3.647191
LINE328,0.000000,3.464928,0.000000,3.359749,36.243464,1.245679
LINE329,80.598025,-0.835758,0.000000,3.348258,0.000000,-1.512805
LINE330,0.000000,4.689717,0.000000,4.157690,36.232350,1.247323
LINE331,210.279088,-0.817869,161.745297,3.302919,36.029873,1.247024
LINE332,290.347570,-0.826455,325.864530,3.311220,293.728584,1.244894
LINE333,39.611512,-0.839986,0.000000,0.264125,0.000000,2.155873
LINE334,0.000000,3.627596,0.000000,3.009516,36.243464,1.245679
LINE335,80.598025,-0.835758,0.000000,3.420206,0.000000,-1.511009
LINE336,0.000000,-0.474278,0.000000,-0.474278,36.232350,1.247323
LINE337,0.000000,-0.374027,39.455657,3.307558,0.000000,1.631122
LINE338,210.279088,-0.817869,122.290202,3.301422,36.029873,1.247024
LINE339,290.347570,-0.826455,325.864530,3.311220,293.728584,1.244894
LINE340,39.611512,-0.839986,0.000000,0.282577,0.000000,2.897320
LINE341,0.000000,2.346420,0.000000,2.346420,36.243464,1.245679
LINE342,40.284302,-0.835848,0.000000,-1.264798,0.000000,1.428239
LINE343,40.313723,-0.835668,0.000000,3.497254,0.000000,-1.509220
LINE344,0.000000,-0.390951,39.455657,3.307558,0.000000,1.630479
LINE345,210.279088,-0.817869,122.290202,3.301422,36.029873,1.247024
LINE346,290.347570,-0.826455,325.864530,3.311220,293.728584,1.244894
LINE347,39.611512,-0.839986,0.000000,0.353135,0.000000,1.912579
LINE348,40.284302,-0.835848,0.000000,-0.088415,0.000000,1.718324
LINE349,40.313723,-0.835668,0.000000,3.163547,0.000000,-1.516292
LINE350,0.000000,-0.513868,39.455657,3.307558,0.000000,1.630216
LINE351,210.279088,-0.817869,122.290202,3.301422,36.029873,1.247024
LINE352,290.347570,-0.826455,325.864530,3.311220,293.728584,1.244894
LINE353,39.611512,-0.839986,0.000000,0.364167,0.000000,4.281013
LINE354,40.313723,-0.835668,0.000000,3.330337,0.000000,-1.551855
LINE355,0.000000,2.708694,39.455657,3.307558,0.000000,1.750842
LINE356,210.279088,-0.817869,122.290202,3.301422,36.029873,1.247024
LINE357,290.347570,-0.826455,325.864530,3.311220,293.728584,1.244894
LINE358,39.611512,-0.839986,0.000000,0.688257,0.000000,1.758627
LINE359,40.313723,-0.835668,0.000000,3.186804,0.000000,4.706164
LINE360,0.000000,0.432028,39.455657,3.307558,0.000000,2.119840
LINE361,210.279088,-0.817869,122.290202,3.301422,36.029873,1.247024
LINE362,290.347570,-0.826455,325.864530,3.311220,293.728584,1.244894
LINE363,39.611512,-0.839986,0.000000,0.474211,0.000000,2.246778
LINE364,40.313723,-0.835668,0.000000,4.030323,0.000000,-1.283206
LINE365,0.000000,1.233209,39.455657,3.307558,0.000000,4.483309
LINE366,210.279088,-0.817869,122.290202,3.301422,36.029873,1.247024
LINE367,290.347570,-0.826455,325.864530,3.311220,293.728584,1.244894
LINE368,39.611512,-0.839986,0.000000,3.139162,0.000000,1.679568
LINE369,40.313723,-0.835668,0.000000,3.890982,0.000000,4.625933
LINE370,0.000000,2.204457,39.455657,3.307558,0.000000,4.399166
LINE371,210.279088,-0.817869,122.290202,3.301422,36.029873,1.247024
LINE372,290.347570,-0.826455,325.864530,3.311220,293.728584,1.244894
LINE373,39.611512,-0.839986,0.000000,1.266227,0.000000,4.490102
LINE374,40.313723,-0.835668,0.000000,-0.368412,0.000000,4.679067
LINE375,0.000000,3.231912,39.455657,3.307558,0.000000,2.093102
LINE376,210.279088,-0.817869,122.290202,3.301422,36.029873,1.247024
LINE377,290.347570,-0.826455,325.864530,3.311220,257.293877,1.244711
LINE378,0.000000,3.936395,0.000000,1.618495,36.434742,1.246183
LINE379,39.611512,-0.839986,0.000000,2.216372,0.000000,1.676295
LINE380,40.313723,-0.835668,0.000000,2.395852,0.000000,1.762842
LINE381,0.000000,0.156097,39.455657,3.307558,0.000000,2.119017
LINE382,210.279088,-0.817869,122.290202,3.301422,36.029873,1.247024
LINE383,290.347570,-0.826455,325.864530,3.311220,257.293877,1.244711
LINE384,0.000000,0.273856,0.000000,1.310748,36.434742,1.246183
LINE385,0.000000,3.692769,0.000000,1.653856,0.000000,4.029207
LINE386,39.611512,-0.839986,0.000000,1.459536,0.000000,1.492283
LINE387,40.313723,-0.835668,0.000000,3.394072,0.000000,1.912101
LINE388,0.000000,-0.876732,39.455657,3.307558,0.000000,1.613554
LINE389,210.279088,-0.817869,122.290202,3.301422,36.029873,1.247024
LINE390,290.347570,-0.826455,325.864530,3.311220,257.293877,1.244711
LINE391,0.000000,0.239105,0.000000,1.496012,36.434742,1.246183
LINE392,0.000000,3.685525,0.000000,1.717923,0.000000,3.583318
LINE393,0.000000,3.078910,39.455657,3.307558,0.000000,-0.247431
LINE394,210.279088,-0.817869,122.290202,3.301422,36.029873,1.247024
LINE395,0.000000,3.546728,0.000000,1.036874,73.129632,1.246366
LINE396,290.347570,-0.826455,325.864530,3.311220,184.164385,1.244054
LINE397,0.000000,0.536552,0.000000,0.363505,36.434742,1.246183
LINE398,0.000000,3.613289,0.000000,2.244257,0.000000,2.075677
LINE399,0.000000,0.129958,39.455657,3.307558,0.000000,1.475499
LINE400,210.279088,-0.817869,122.290202,3.301422,36.029873,1.247024
LINE401,0.000000,3.517598,0.000000,1.066965,73.129632,1.246366
LINE402,290.347570,-0.826455,325.864530,3.311220,184.164385,1.244054
LINE403,0.000000,2.220546,0.000000,0.677317,36.434742,1.246183
LINE404,0.000000,3.869779,0.000000,2.597150,0.000000,1.593718
LINE405,0.000000,4.637537,39.455657,3.307558,0.000000,1.722461
LINE406,210.279088,-0.817869,122.290202,3.301422,36.029873,1.247024
LINE407,0.000000,3.545410,0.000000,1.134658,73.129632,1.246366
LINE408,290.347570,-0.826455,325.864530,3.311220,184.164385,1.244054
LINE409,0.000000,-0.943453,0.000000,4.586104,0.000000,1.229746
LINE410,0.000000,1.115498,0.000000,0.707361,36.434742,1.246183
LINE411,0.000000,4.066770,0.000000,2.602522,0.000000,1.597150
LINE412,210.279088,-0.817869,122.290202,3.301422,36.029873,1.247024
LINE413,0.000000,3.658747,0.000000,0.597318,73.129632,1.246366
LINE414,290.347570,-0.826455,325.864530,3.311220,184.164385,1.244054
LINE415,0.000000,-0.909912,0.000000,4.572479,0.000000,1.214515
LINE416,0.000000,1.197622,0.000000,1.106640,36.434742,1.246183
LINE417,0.000000,-1.370234,0.000000,1.963241,0.000000,1.626426
LINE418,210.279088,-0.817869,122.290202,3.301422,36.029873,1.247024
LINE419,0.000000,3.730899,0.000000,0.580720,73.129632,1.246366
LINE420,290.347570,-0.826455,325.864530,3.311220,184.164385,1.244054
LINE421,0.000000,-1.074666,0.000000,4.632320,0.000000,1.215761
LINE422,0.000000,2.128563,0.000000,0.371320,36.434742,1.246183
LINE423,0.000000,-1.259887,0.000000,1.758701,0.000000,1.625507
LINE424,210.279088,-0.817869,122.290202,3.301422,36.029873,1.247024
LINE425,0.000000,-0.201681,0.000000,-0.201681,0.000000,2.996186
LINE426,0.000000,3.621559,0.000000,0.794638,73.129632,1.246366
LINE427,290.347570,-0.826455,325.864530,3.311220,184.164385,1.244054
LINE428,0.000000,-0.791851,0.000000,4.586871,0.000000,1.204823
LINE429,0.000000,2.638181,0.000000,0.715232,36.434742,1.246183
LINE430,0.000000,-1.237001,0.000000,1.627940,0.000000,1.622995
LINE431,210.279088,-0.817869,122.290202,3.301422,36.029873,1.247024
LINE432,0.000000,4.019279,0.000000,2.781218,0.000000,3.956902
LINE433,0.000000,3.719629,0.000000,0.753729,73.129632,1.246366
LINE434,290.347570,-0.826455,325.864530,3.311220,184.164385,1.244054
LINE435,0.000000,-0.710535,0.000000,-1.556649,0.000000,1.151348
LINE436,0.000000,2.232269,0.000000,2.232269,36.434742,1.246183
LINE437,0.000000,-1.071302,0.000000,1.984906,0.000000,1.606727
LINE438,210.279088,-0.817869,122.290202,3.301422,36.029873,1.247024
LINE439,0.000000,0.000000,0.000000,0.000000,0.000000,0.000000
LINE440,0.000000,3.692390,0.000000,0.692805,73.129632,1.246366
LINE441,290.347570,-0.826455,325.864530,3.311220,184.164385,1.244054
LINE442,0.000000,-0.920997,0.000000,-1.449733,0.000000,1.215345
LINE443,0.000000,3.218160,0.000000,2.284019,36.434742,1.246183
LINE444,0.000000,-1.275625,0.000000,2.038962,0.000000,1.599884
LINE445,210.279088,-0.817869,122.290202,3.301422,36.029873,1.247024
LINE446,0.000000,3.168596,0.000000,2.199569,0.000000,1.505804
LINE447,0.000000,3.620189,0.000000,0.771880,73.129632,1.246366
LINE448,290.347570,-0.826455,325.864530,3.311220,184.164385,1.244054
LINE449,0.000000,-0.741274,0.000000,-1.462015,0.000000,1.151621
LINE450,0.000000,4.243970,0.000000,1.603979,36.434742,1.246183
LINE451,0.000000,-1.110369,0.000000,1.118247,0.000000,1.600001
LINE452,210.279088,-0.817869,122.290202,3.301422,36.029873,1.247024
LINE453,0.000000,-1.370889,0.000000,-1.370889,0.000000,4.642154
LINE454,0.000000,3.760780,0.000000,0.880969,73.129632,1.246366
LINE455,290.347570,-0.826455,325.864530,3.311220,184.164385,1.244054
LINE456,0.000000,-0.736201,0.000000,-1.281091,0.000000,1.124704
LINE457,0.000000,4.207095,0.000000,3.534511,36.434742,1.246183
LINE458,0.000000,-0.972503,0.000000,0.711139,0.000000,1.605428
LINE459,168.581994,-0.816883,122.290202,3.301422,36.029873,1.247024
LINE460,0.000000,2.529927,0.000000,2.529927,0.000000,-1.507147
LINE461,41.697508,-0.821855,0.000000,2.031356,0.000000,4.678060
LINE462,0.000000,3.757332,0.000000,0.738051,73.129632,1.246366
LINE463,290.347570,-0.826455,325.864530,3.311220,184.164385,1.244054
LINE464,0.000000,-0.456842,0.000000,4.605190,0.000000,0.874261
LINE465,0.000000,-0.925971,0.000000,0.511766,0.000000,1.603603
LINE466,168.581994,-0.816883,122.290202,3.301422,36.029873,1.247024
LINE467,0.000000,1.380027,0.000000,4.658070,0.000000,4.069563
LINE468,0.000000,-0.201681,0.000000,-0.201681,0.000000,2.996186
LINE469,41.697508,-0.821855,0.000000,2.054907,0.000000,4.672519
LINE470,0.000000,3.589683,0.000000,0.569411,73.129632,1.246366
LINE471,290.347570,-0.826455,325.864530,3.311220,184.164385,1.244054
LINE472,0.000000,-0.608861,0.000000,-1.457343,0.000000,0.546826
LINE473,0.000000,-0.854429,0.000000,0.419638,0.000000,1.597132
LINE474,168.581994,-0.816883,122.290202,3.301422,36.029873,1.247024
LINE475,0.000000,2.939912,0.000000,2.939912,0.000000,-0.145406
LINE476,41.697508,-0.821855,0.000000,1.813759,0.000000,4.669437
LINE477,0.000000,3.315655,0.000000,0.569008,73.129632,1.246366
LINE478,290.347570,-0.826455,325.864530,3.311220,184.164385,1.244054
LINE479,0.000000,-0.395587,0.000000,-1.435155,0.000000,0.822001
LINE480,0.000000,-0.561303,0.000000,0.378364,0.000000,1.555881
LINE481,84.410576,-0.815619,122.290202,3.301422,36.029873,1.247024
LINE482,0.000000,2.939912,0.000000,2.939912,0.000000,-0.145406
LINE483,84.171553,-0.818150,0.000000,1.413704,0.000000,-1.553790
LINE484,41.697508,-0.821855,0.000000,1.166558,0.000000,4.681225
LINE485,0.000000,3.645895,0.000000,0.564260,73.129632,1.246366
LINE486,290.347570,-0.826455,325.864530,3.311220,184.164385,1.244054
LINE487,0.000000,-0.318757,0.000000,-1.437023,0.000000,0.929231
LINE488,0.000000,-0.726856,0.000000,3.534530,0.000000,1.574021
LINE489,84.410576,-0.815619,122.290202,3.301422,36.029873,1.247024
LINE490,0.000000,-0.393960,0.000000,4.125393,0.000000,-1.001631
LINE491,42.080083,-0.818183,0.000000,1.397101,0.000000,-1.553955
LINE492,42.091470,-0.818116,0.000000,3.673674,0.000000,4.667144
LINE493,41.697508,-0.821855,0.000000,0.843983,0.000000,4.676166
LINE494,0.000000,3.236339,0.000000,0.707669,73.129632,1.246366
LINE495,290.347570,-0.826455,325.864530,3.311220,184.164385,1.244054
LINE496,0.000000,-0.412887,0.000000,4.709481,0.000000,0.173000
LINE497,0.000000,-0.860643,0.000000,4.623242,0.000000,1.522215
LINE498,84.410576,-0.815619,122.290202,3.301422,36.029873,1.247024
LINE499,0.000000,4.555643,0.000000,1.410396,0.000000,2.996186
LINE500,42.080083,-0.818183,0.000000,1.392538,0.000000,-1.560250
LINE501,42.091470,-0.818116,0.000000,-0.529316,0.000000,1.423748
LINE502,41.697508,-0.821855,0.000000,1.236862,0.000000,4.677712
LINE503,0.000000,3.123530,0.000000,0.592336,73.129632,1.246366
LINE504,290.347570,-0.826455,325.864530,3.311220,184.164385,1.244054
LINE505,0.000000,-0.335818,0.000000,-1.450755,0.000000,1.072755
LINE506,0.000000,-0.149575,0.000000,-0.149575,0.000000,3.066247
LINE507,84.410576,-0.815619,122.290202,3.301422,36.029873,1.247024
LINE508,0.000000,3.389860,0.000000,2.174302,0.000000,3.637953
LINE509,42.080083,-0.818183,0.000000,1.502428,0.000000,-1.570027
LINE510,41.697508,-0.821855,0.000000,1.029603,0.000000,4.666091
LINE511,0.000000,3.065302,0.000000,0.915341,73.129632,1.246366
LINE512,0.000000,1.588891,39.814037,3.311346,0.000000,-1.511870
LINE513,290.347570,-0.826455,286.050494,3.311203,184.164385,1.244054
LINE514,0.000000,-0.541781,0.000000,-1.535293,0.000000,1.278943
LINE515,0.000000,4.440581,122.290202,3.301422,36.029873,1.247024
LINE516,0.000000,2.594765,0.000000,0.589480,0.000000,1.846227
LINE517,84.410576,-0.815619,0.000000,4.083705,0.000000,-1.556099
LINE518,42.080083,-0.818183,0.000000,0.796042,0.000000,-1.555259
LINE519,41.697508,-0.821855,0.000000,0.767855,0.000000,4.651547
LINE520,0.000000,2.439147,0.000000,2.030413,73.129632,1.246366
LINE521,0.000000,-0.741391,39.814037,3.311346,0.000000,4.701075
LINE522,290.347570,-0.826455,286.050494,3.311203,184.164385,1.244054
LINE523,0.000000,-0.612410,0.000000,-1.438587,0.000000,1.561166
LINE524,0.000000,4.416456,122.290202,3.301422,36.029873,1.247024
LINE525,0.000000,4.067016,0.000000,3.322314,0.000000,1.637635
LINE526,84.410576,-0.815619,0.000000,4.048231,0.000000,-1.556073
LINE527,42.080083,-0.818183,0.000000,1.539951,0.000000,-1.552488
LINE528,41.697508,-0.821855,0.000000,1.216586,0.000000,4.607017
LINE529,0.000000,2.963901,0.000000,0.485811,73.129632,1.246366
LINE530,290.347570,-0.826455,286.050494,3.311203,184.164385,1.244054
LINE531,0.000000,-0.401252,0.000000,4.444660,0.000000,1.315097
LINE532,0.000000,4.397863,122.290202,3.301422,36.029873,1.247024
LINE533,0.000000,2.939912,0.000000,2.939912,0.000000,-0.145406
LINE534,84.410576,-0.815619,0.000000,4.033151,0.000000,-1.556285
LINE535,42.080083,-0.818183,0.000000,1.052720,0.000000,4.694267
LINE536,41.697508,-0.821855,0.000000,1.125981,0.000000,4.421343
LINE537,0.000000,1.920124,0.000000,3.864930,36.578744,1.246460
LINE538,0.000000,-0.557259,0.000000,0.242528,36.550889,1.246272
LINE539,290.347570,-0.826455,286.050494,3.311203,184.164385,1.244054
LINE540,0.000000,-0.092417,0.000000,-1.378333,0.000000,1.246074
LINE541,0.000000,4.423510,122.290202,3.301422,36.029873,1.247024
LINE542,0.000000,-0.867128,0.000000,1.918069,0.000000,2.030449
LINE543,84.410576,-0.815619,0.000000,3.841576,0.000000,-1.555560
LINE544,42.080083,-0.818183,0.000000,-0.497439,0.000000,-1.561970
LINE545,41.697508,-0.821855,0.000000,1.007125,0.000000,4.369837
LINE546,0.000000,2.658735,0.000000,3.261341,36.578744,1.246460
LINE547,290.347570,-0.826455,286.050494,3.311203,184.164385,1.244054
LINE548,0.000000,0.608558,0.000000,-1.090888,0.000000,1.300681
LINE549,0.000000,4.423623,122.290202,3.301422,36.029873,1.247024
LINE550,0.000000,4.520083,0.000000,4.325415,0.000000,1.442725
LINE551,42.203874,-0.815627,0.000000,3.737937,0.000000,-1.556757
LINE552,42.206702,-0.815611,0.000000,0.258977,0.000000,1.566836
LINE553,42.080083,-0.818183,0.000000,0.233352,0.000000,4.569158
LINE554,41.697508,-0.821855,0.000000,0.565458,0.000000,4.458656
LINE555,0.000000,0.568756,0.000000,-0.306001,36.578744,1.246460
LINE556,290.347570,-0.826455,286.050494,3.311203,184.164385,1.244054
LINE557,0.000000,-0.554895,0.000000,3.727530,0.000000,-0.106366
LINE558,0.000000,4.407276,122.290202,3.301422,36.029873,1.247024
LINE559,0.000000,0.449119,0.000000,-1.047246,0.000000,0.924393
LINE560,42.203874,-0.815627,0.000000,2.287759,0.000000,-1.556555
LINE561,42.206702,-0.815611,0.000000,0.559655,0.000000,1.514241
LINE562,42.080083,-0.818183,0.000000,-0.200845,0.000000,4.133606
LINE563,41.697508,-0.821855,0.000000,0.584870,0.000000,1.707373
LINE564,290.347570,-0.826455,286.050494,3.311203,184.164385,1.244054
LINE565,0.000000,-0.985595,0.000000,3.265614,0.000000,1.113231
LINE566,0.000000,4.285141,40.734919,3.301507,36.029873,1.247024
LINE567,0.000000,-1.082809,0.000000,3.241018,0.000000,3.312874
LINE568,0.000000,0.099888,81.555283,3.301379,0.000000,1.533164
LINE569,42.203874,-0.815627,0.000000,4.435460,0.000000,4.690054
LINE570,41.697508,-0.821855,0.000000,0.656497,0.000000,4.576639
LINE571,290.347570,-0.826455,286.050494,3.311203,184.164385,1.244054
LINE572,0.000000,4.221008,40.734919,3.301507,36.029873,1.247024
LINE573,0.000000,2.974628,0.000000,-1.025852,0.000000,4.489966
LINE574,0.000000,0.016916,81.555283,3.301379,0.000000,1.536407
LINE575,42.203874,-0.815627,0.000000,3.591299,0.000000,-1.570314
LINE576,41.697508,-0.821855,0.000000,0.732801,0.000000,4.621679
LINE577,290.347570,-0.826455,286.050494,3.311203,184.164385,1.244054
LINE578,0.000000,4.337144,40.734919,3.301507,36.029873,1.247024
LINE579,0.000000,2.970301,0.000000,2.970301,0.000000,1.602226
LINE580,0.000000,4.251012,0.000000,3.159308,0.000000,2.219607
LINE581,0.000000,0.024380,81.555283,3.301379,0.000000,1.538348
LINE582,42.203874,-0.815627,0.000000,3.593989,0.000000,-1.515558
LINE583,41.697508,-0.821855,0.000000,0.472016,0.000000,1.813308
LINE584,0.000000,4.688524,39.912052,3.311481,0.000000,1.516534
LINE585,290.347570,-0.826455,246.138444,3.311157,184.164385,1.244054
LINE586,0.000000,-1.462162,40.734919,3.301507,36.029873,1.247024
LINE587,0.000000,1.737019,0.000000,0.041810,0.000000,3.772997
LINE588,0.000000,4.428510,0.000000,3.102768,0.000000,2.070016
LINE589,0.000000,0.160696,81.555283,3.301379,0.000000,1.545235
LINE590,42.203874,-0.815627,0.000000,2.314288,0.000000,4.673997
LINE591,41.697508,-0.821855,0.000000,0.947341,0.000000,1.740479
LINE592,0.000000,4.686443,39.912052,3.311481,0.000000,1.516821
LINE593,290.347570,-0.826455,246.138444,3.311157,184.164385,1.244054
LINE594,0.000000,-0.571217,40.734919,3.301507,0.000000,0.803731
LINE595,0.000000,-0.903783,0.000000,0.780075,36.029873,1.247024
LINE596,0.000000,4.580435,0.000000,3.030020,0.000000,2.158621
LINE597,0.000000,0.368570,81.555283,3.301379,0.000000,1.540698
LINE598,42.203874,-0.815627,0.000000,3.943018,0.000000,4.059030
LINE599,41.697508,-0.821855,0.000000,1.178413,0.000000,1.508955
LINE600,0.000000,4.709102,39.912052,3.311481,0.000000,1.517652
LINE601,0.000000,3.081072,0.000000,-0.088508,36.633316,1.244486
LINE602,290.347570,-0.826455,246.138444,3.311157,147.531073,1.243947
LINE603,0.000000,0.221831,40.734919,3.301507,0.000000,-0.572149
LINE604,0.000000,1.443263,0.000000,1.443263,0.000000,4.485220
LINE605,0.000000,0.428655,0.000000,2.302762,0.000000,-1.125535
LINE606,0.000000,2.538551,0.000000,3.033907,36.029873,1.247024
LINE607,0.000000,-0.149575,0.000000,-0.149575,0.000000,3.066247
LINE608,0.000000,-1.563062,0.000000,2.909343,0.000000,2.044362
LINE609,0.000000,0.368132,81.555283,3.301379,0.000000,1.541070
LINE610,42.203874,-0.815627,0.000000,3.402327,0.000000,1.549458
LINE611,41.697508,-0.821855,0.000000,1.902009,0.000000,-1.322967
LINE612,0.000000,4.712205,39.912052,3.311481,0.000000,1.522747
LINE613,0.000000,2.853544,0.000000,2.853544,36.633316,1.244486
LINE614,290.347570,-0.826455,246.138444,3.311157,147.531073,1.243947
LINE615,0.000000,4.644870,40.734919,3.301507,0.000000,1.456437
LINE616,0.000000,1.138896,0.000000,4.638069,0.000000,2.044137
LINE617,0.000000,2.939912,0.000000,2.939912,0.000000,-0.145406
LINE618,0.000000,3.428455,0.000000,2.556605,36.029873,1.247024
LINE619,0.000000,-1.477889,0.000000,2.854313,0.000000,2.363279
LINE620,0.000000,0.407212,81.555283,3.301379,0.000000,1.538284
LINE621,41.697508,-0.821855,0.000000,1.075338,0.000000,1.548264
LINE622,0.000000,-1.491626,39.912052,3.311481,0.000000,1.525994
LINE623,0.000000,0.056279,40.105191,3.310227,0.000000,4.649965
LINE624,290.347570,-0.826455,206.033273,3.311339,147.531073,1.243947
LINE625,0.000000,-0.711020,40.734919,3.301507,0.000000,1.508486
LINE626,0.000000,4.695057,0.000000,2.997432,0.000000,1.775651
LINE627,0.000000,0.333181,81.555283,3.301379,0.000000,1.539695
LINE628,41.697508,-0.821855,0.000000,4.246736,0.000000,-1.517290
LINE629,0.000000,-1.543160,39.912052,3.311481,0.000000,1.516713
LINE630,0.000000,-0.376580,40.105191,3.310227,0.000000,4.679711
LINE631,290.347570,-0.826455,206.033273,3.311339,147.531073,1.243947
LINE632,0.000000,-0.531166,40.734919,3.301507,0.000000,0.000000
LINE633,0.000000,-0.710406,0.000000,3.013433,0.000000,1.814563
LINE634,0.000000,0.312836,81.555283,3.301379,0.000000,1.540647
LINE635,0.000000,-1.333783,39.912052,3.311481,0.000000,1.516198
LINE636,0.000000,0.304859,40.105191,3.310227,0.000000,4.694255
LINE637,290.347570,-0.826455,206.033273,3.311339,147.531073,1.243947
LINE638,0.000000,0.000000,40.734919,3.301507,0.000000,-0.067519
LINE639,0.000000,4.206788,0.000000,3.354615,0.000000,1.831937
LINE640,0.000000,0.357493,81.555283,3.301379,0.000000,1.542915
LINE641,0.000000,-1.415190,39.912052,3.311481,0.000000,1.521129
LINE642,0.000000,-0.010198,40.105191,3.310227,0.000000,1.505936
LINE643,290.347570,-0.826455,206.033273,3.311339,147.531073,1.243947
LINE644,0.000000,0.386852,0.000000,2.913407,0.000000,1.528669
LINE645,0.000000,0.090518,81.555283,3.301379,0.000000,1.548932
LINE646,0.000000,-1.378750,39.912052,3.311481,0.000000,1.518338
LINE647,0.000000,0.078449,40.105191,3.310227,0.000000,1.278808
LINE648,290.347570,-0.826455,206.033273,3.311339,147.531073,1.243947
LINE649,0.000000,1.725859,0.000000,0.579644,0.000000,1.409144
LINE650,0.000000,3.982106,81.555283,3.301379,0.000000,1.536266
LINE651,0.000000,-1.336143,39.912052,3.311481,0.000000,1.525965
LINE652,0.000000,0.010045,40.105191,3.310227,0.000000,1.071963
LINE653,290.347570,-0.826455,206.033273,3.311339,147.531073,1.243947
LINE654,0.000000,1.523069,0.000000,4.340923,0.000000,1.483775
LINE655,0.000000,4.603554,40.780749,3.301398,0.000000,1.532429
LINE656,0.000000,0.030620,40.774534,3.301361,0.000000,1.560155
LINE657,0.000000,-1.373996,39.912052,3.311481,0.000000,1.523801
LINE658,0.000000,0.182457,40.105191,3.310227,0.000000,-1.152737
LINE659,290.347570,-0.826455,206.033273,3.311339,147.531073,1.243947
LINE660,0.000000,-0.454936,0.000000,-0.454936,0.000000,1.694114
LINE661,0.000000,-0.105161,40.780749,3.301398,0.000000,1.547379
LINE662,0.000000,-1.160975,40.774534,3.301361,0.000000,1.571221
LINE663,0.000000,-1.281030,39.912052,3.311481,0.000000,1.522986
LINE664,0.000000,-0.517292,40.105191,3.310227,0.000000,4.707005
LINE665,290.347570,-0.826455,206.033273,3.311339,147.531073,1.243947
LINE666,0.000000,0.429582,0.000000,0.332729,0.000000,1.397260
LINE667,0.000000,3.786843,40.780749,3.301398,0.000000,4.338441
LINE668,0.000000,-0.354522,40.774534,3.301361,0.000000,1.968966
LINE669,0.000000,-1.201758,39.912052,3.311481,0.000000,1.520226
LINE670,0.000000,4.287052,40.105191,3.310227,0.000000,-1.509480
LINE671,123.924624,-0.829666,0.000000,2.864155,0.000000,4.707299
LINE672,166.424060,-0.824065,206.033273,3.311339,147.531073,1.243947
LINE673,0.000000,-0.898569,0.000000,-0.898569,0.000000,1.544574
LINE674,0.000000,-0.246305,40.780749,3.301398,0.000000,-0.892242
LINE675,0.000000,-0.642732,40.774534,3.301361,0.000000,4.317341
LINE676,0.000000,-1.173692,39.912052,3.311481,0.000000,1.527155
LINE677,0.000000,-0.357511,40.105191,3.310227,0.000000,4.620540
LINE678,123.924624,-0.829666,0.000000,2.841948,0.000000,4.700908
LINE679,166.424060,-0.824065,206.033273,3.311339,147.531073,1.243947
LINE680,0.000000,1.623766,0.000000,1.623766,0.000000,-1.168775
LINE681,0.000000,3.382353,40.780749,3.301398,0.000000,2.097405
LINE682,0.000000,-1.322071,39.912052,3.311481,0.000000,1.524260
LINE683,0.000000,-0.485884,40.105191,3.310227,0.000000,1.618454
LINE684,123.924624,-0.829666,0.000000,3.011956,0.000000,4.710167
LINE685,166.424060,-0.824065,206.033273,3.311339,147.531073,1.243947
LINE686,0.000000,-1.167344,39.912052,3.311481,0.000000,1.526572
LINE687,0.000000,0.131209,40.105191,3.310227,0.000000,-1.447988
LINE688,123.924624,-0.829666,0.000000,2.985255,0.000000,4.706274
LINE689,0.000000,2.693444,0.000000,0.196145,73.566166,1.244868
LINE690,166.424060,-0.824065,206.033273,3.311339,73.964968,1.243031
LINE691,0.000000,-1.228939,39.912052,3.311481,0.000000,1.520361
LINE692,123.924624,-0.829666,0.000000,2.884997,0.000000,-1.549509
LINE693,0.000000,2.696092,0.000000,0.194867,36.786111,1.244888
LINE694,0.000000,-1.561361,0.000000,1.116275,36.780056,1.244847
LINE695,0.000000,3.092920,40.440457,3.309824,0.000000,-0.978283
LINE696,166.424060,-0.824065,165.592875,3.311709,73.964968,1.243031
LINE697,0.000000,-1.252908,39.912052,3.311481,0.000000,1.513601
LINE698,123.924624,-0.829666,0.000000,2.944643,0.000000,-1.556657
LINE699,0.000000,2.696797,0.000000,0.229249,36.786111,1.244888
LINE700,0.000000,3.367517,0.000000,2.620212,36.780056,1.244847
LINE701,0.000000,2.491793,40.440457,3.309824,0.000000,-1.400852
LINE702,166.424060,-0.824065,165.592875,3.311709,73.964968,1.243031
LINE703,0.000000,-1.231627,39.912052,3.311481,0.000000,1.515070
LINE704,123.924624,-0.829666,0.000000,2.712931,0.000000,-1.562178
LINE705,0.000000,2.544755,0.000000,0.154844,36.786111,1.244888
LINE706,166.424060,-0.824065,165.592875,3.311709,73.964968,1.243031
LINE707,0.000000,2.884095,0.000000,0.387885,0.000000,4.219870
LINE708,0.000000,-1.198679,39.912052,3.311481,0.000000,1.516160
LINE709,123.924624,-0.829666,0.000000,2.795264,0.000000,-1.559024
LINE710,0.000000,2.683381,0.000000,0.026280,36.786111,1.244888
LINE711,83.559181,-0.821119,165.592875,3.311709,73.964968,1.243031
LINE712,82.865606,-0.827034,0.000000,0.273446,0.000000,-1.523320
LINE713,0.000000,2.871579,0.000000,0.269695,0.000000,4.618674
LINE714,0.000000,-1.036054,39.912052,3.311481,0.000000,1.512450
LINE715,123.924624,-0.829666,0.000000,2.786162,0.000000,-1.559591
LINE716,0.000000,2.843527,0.000000,0.340963,36.786111,1.244888
LINE717,83.559181,-0.821119,165.592875,3.311709,73.964968,1.243031
LINE718,82.865606,-0.827034,0.000000,0.223191,0.000000,-1.518824
LINE719,0.000000,3.005580,0.000000,0.309461,0.000000,4.690272
LINE720,0.000000,-1.288517,39.912052,3.311481,0.000000,1.513932
LINE721,123.924624,-0.829666,0.000000,2.794691,0.000000,-1.560306
LINE722,0.000000,3.021658,0.000000,0.110395,36.786111,1.244888
LINE723,83.559181,-0.821119,83.405247,3.311865,73.964968,1.243031
LINE724,0.000000,-1.280317,82.187630,3.311550,0.000000,1.569563
LINE725,82.865606,-0.827034,0.000000,0.141052,0.000000,-1.508131
LINE726,0.000000,3.009425,0.000000,0.298432,0.000000,4.445721
LINE727,0.000000,-1.459197,39.912052,3.311481,0.000000,1.529387
LINE728,123.924624,-0.829666,0.000000,2.809709,0.000000,-1.565383
LINE729,0.000000,3.103840,0.000000,0.084588,36.786111,1.244888
LINE730,83.559181,-0.821119,83.405247,3.311865,73.964968,1.243031
LINE731,0.000000,-1.288428,82.187630,3.311550,0.000000,1.569518
LINE732,82.865606,-0.827034,0.000000,0.434389,0.000000,-1.470818
LINE733,0.000000,3.141956,0.000000,0.451540,0.000000,4.013730
LINE734,0.000000,3.715995,39.912052,3.311481,0.000000,1.530013
LINE735,123.924624,-0.829666,0.000000,2.703845,0.000000,-1.569842
LINE736,0.000000,2.812280,0.000000,0.125488,36.786111,1.244888
LINE737,83.559181,-0.821119,83.405247,3.311865,73.964968,1.243031
LINE738,0.000000,-1.316592,82.187630,3.311550,0.000000,1.570299
LINE739,82.865606,-0.827034,0.000000,0.596275,0.000000,-1.405308
LINE740,0.000000,3.431607,0.000000,0.438353,0.000000,3.983919
LINE741,0.000000,4.283869,39.912052,3.311481,0.000000,1.488132
LINE742,123.924624,-0.829666,0.000000,2.845445,0.000000,4.709211
LINE743,0.000000,2.647098,0.000000,-0.306563,36.786111,1.244888
LINE744,83.559181,-0.821119,83.405247,3.311865,73.964968,1.243031
LINE745,0.000000,-0.890691,41.098605,3.311579,0.000000,-0.775322
LINE746,0.000000,-1.528395,41.089025,3.311521,0.000000,1.570340
LINE747,82.865606,-0.827034,0.000000,0.781124,0.000000,-1.431799
LINE748,0.000000,3.394963,0.000000,0.368080,0.000000,4.053040
LINE749,0.000000,-0.753784,39.912052,3.311481,0.000000,1.529883
LINE750,123.924624,-0.829666,0.000000,2.676371,0.000000,4.708753
LINE751,0.000000,3.010702,0.000000,-0.366333,36.786111,1.244888
LINE752,83.559181,-0.821119,83.405247,3.311865,0.000000,-1.192415
LINE753,0.000000,-1.284364,0.000000,3.769973,73.964968,1.243031
LINE754,0.000000,1.472690,41.098605,3.311579,0.000000,-1.230690
LINE755,0.000000,4.369218,41.089025,3.311521,0.000000,1.543687
LINE756,82.865606,-0.827034,0.000000,0.788325,0.000000,-1.385620
LINE757,0.000000,3.580442,0.000000,0.339189,0.000000,4.366186
LINE758,0.000000,3.149125,39.912052,3.311481,0.000000,1.479320
LINE759,123.924624,-0.829666,0.000000,2.690919,0.000000,-1.567723
LINE760,0.000000,-0.788197,0.000000,0.543766,36.786111,1.244888
LINE761,83.559181,-0.821119,83.405247,3.311865,0.000000,-1.231600
LINE762,0.000000,-1.286455,0.000000,3.767577,73.964968,1.243031
LINE763,0.000000,-1.451219,41.089025,3.311521,0.000000,1.578204
LINE764,82.865606,-0.827034,0.000000,1.221127,0.000000,-1.308364
LINE765,0.000000,3.353406,0.000000,0.342745,0.000000,4.546864
LINE766,0.000000,1.277387,39.912052,3.311481,0.000000,1.500285
LINE767,123.924624,-0.829666,0.000000,2.680250,0.000000,4.711511
LINE768,0.000000,4.241168,0.000000,1.719478,36.786111,1.244888
LINE769,83.559181,-0.821119,83.405247,3.311865,0.000000,-1.200796
LINE770,0.000000,-0.171359,0.000000,-0.573935,36.987510,1.243064
LINE771,0.000000,-1.090816,0.000000,3.641208,36.977459,1.242997
LINE772,0.000000,-0.846430,41.089025,3.311521,0.000000,1.594507
LINE773,82.865606,-0.827034,0.000000,1.356911,0.000000,-1.383170
LINE774,0.000000,2.498967,0.000000,0.507875,0.000000,-1.530669
LINE775,0.000000,-0.356187,39.912052,3.311481,0.000000,1.561169
LINE776,123.924624,-0.829666,0.000000,2.708487,0.000000,-1.554711
LINE777,0.000000,2.834837,0.000000,0.015590,36.786111,1.244888
LINE778,83.559181,-0.821119,83.405247,3.311865,0.000000,-1.181619
LINE779,0.000000,-0.145545,0.000000,1.414923,36.987510,1.243064
LINE780,0.000000,-1.019066,0.000000,3.794859,36.977459,1.242997
LINE781,0.000000,-0.521256,41.089025,3.311521,0.000000,1.685647
LINE782,82.865606,-0.827034,0.000000,1.720639,0.000000,-1.266769
LINE783,0.000000,2.468051,0.000000,0.314829,0.000000,4.650320
LINE784,0.000000,1.431353,39.912052,3.311481,0.000000,1.553751
LINE785,123.924624,-0.829666,0.000000,2.695507,0.000000,-1.554316
LINE786,83.559181,-0.821119,83.405247,3.311865,0.000000,-1.188627
LINE787,0.000000,-0.163363,0.000000,3.779721,36.977459,1.242997
LINE788,0.000000,-0.362077,41.089025,3.311521,0.000000,2.145144
LINE789,82.865606,-0.827034,0.000000,1.595751,0.000000,-1.234426
LINE790,0.000000,3.202232,0.000000,0.096304,0.000000,4.386516
LINE791,82.616255,-0.829666,0.000000,2.875275,0.000000,-1.556217
LINE792,41.308369,-0.829665,0.000000,2.610429,0.000000,4.362335
LINE793,83.559181,-0.821119,83.405247,3.311865,0.000000,-1.191495
LINE794,0.000000,0.212470,0.000000,3.543421,36.977459,1.242997
LINE795,0.000000,4.251146,41.089025,3.311521,0.000000,-0.894582
LINE796,82.865606,-0.827034,0.000000,1.182208,0.000000,-1.361223
LINE797,0.000000,1.442183,0.000000,4.408992,0.000000,1.572650
LINE798,82.616255,-0.829666,0.000000,2.931348,0.000000,-1.565353
LINE799,41.308369,-0.829665,0.000000,3.097970,0.000000,1.546468
LINE800,83.559181,-0.821119,0.000000,3.770991,0.000000,0.321261
LINE801,0.000000,3.624027,83.405247,3.311865,0.000000,-1.084132
LINE802,0.000000,2.475716,0.000000,3.343693,36.977459,1.242997
LINE803,0.000000,0.310621,41.089025,3.311521,0.000000,4.691257
LINE804,82.865606,-0.827034,0.000000,1.903320,0.000000,-1.360848
LINE805,0.000000,1.453056,0.000000,-0.046071,0.000000,0.246425
LINE806,82.616255,-0.829666,0.000000,2.942089,0.000000,-1.557288
LINE807,41.308369,-0.829665,0.000000,1.405567,0.000000,1.584831
LINE808,83.559181,-0.821119,0.000000,3.778355,0.000000,-1.523964
LINE809,0.000000,3.677317,83.405247,3.311865,0.000000,-1.166622
LINE810,0.000000,0.000000,0.000000,0.000000,0.000000,0.000000
LINE811,0.000000,1.546032,0.000000,3.655546,36.977459,1.242997
LINE812,0.000000,-0.327497,41.089025,3.311521,0.000000,4.292159
LINE813,82.865606,-0.827034,0.000000,2.389899,0.000000,-1.401958
LINE814,0.000000,3.421037,0.000000,-1.394282,0.000000,1.458654
LINE815,82.616255,-0.829666,0.000000,2.746428,0.000000,-1.540823
LINE816,41.308369,-0.829665,0.000000,4.168758,0.000000,1.704759
LINE817,83.559181,-0.821119,0.000000,3.362610,0.000000,-1.563995
LINE818,0.000000,3.804262,83.405247,3.311865,0.000000,-1.094786
LINE819,0.000000,2.939912,0.000000,2.939912,0.000000,-0.145406
LINE820,0.000000,1.295718,0.000000,-1.482412,36.977459,1.242997
LINE821,82.865606,-0.827034,0.000000,1.567320,0.000000,-1.461691
LINE822,0.000000,1.665514,0.000000,-0.600090,0.000000,1.849984
LINE823,82.616255,-0.829666,0.000000,2.942179,0.000000,-1.564439
LINE824,83.559181,-0.821119,0.000000,2.310566,0.000000,-1.569500
LINE825,0.000000,3.841597,83.405247,3.311865,0.000000,-1.011068
LINE826,0.000000,4.510708,0.000000,4.510708,0.000000,1.425390
LINE827,0.000000,-0.204588,0.000000,-1.129993,36.977459,1.242997
LINE828,82.865606,-0.827034,0.000000,2.122872,0.000000,-1.392353
LINE829,0.000000,4.633054,0.000000,-1.399184,0.000000,1.703174
LINE830,82.616255,-0.829666,0.000000,2.975466,0.000000,-1.569077
LINE831,83.559181,-0.821119,0.000000,1.180176,0.000000,-1.544289
LINE832,0.000000,3.998619,83.405247,3.311865,0.000000,-1.170221
LINE833,0.000000,-0.400884,0.000000,0.688263,0.000000,-1.095567
LINE834,0.000000,-0.110299,0.000000,-0.404967,36.977459,1.242997
LINE835,82.865606,-0.827034,0.000000,2.583505,0.000000,-1.331178
LINE836,82.616255,-0.829666,0.000000,2.801573,0.000000,1.580989
LINE837,83.559181,-0.821119,0.000000,0.843226,0.000000,-1.568479
LINE838,0.000000,4.287835,83.405247,3.311865,0.000000,-1.304324
LINE839,0.000000,0.000000,0.000000,0.000000,0.000000,0.000000
LINE840,82.865606,-0.827034,0.000000,2.710074,0.000000,-1.286248
LINE841,82.616255,-0.829666,0.000000,2.969471,0.000000,1.484286
LINE842,83.559181,-0.821119,0.000000,0.490890,0.000000,4.711965
LINE843,0.000000,-0.663718,83.405247,3.311865,0.000000,1.715082
LINE844,0.000000,3.587090,0.000000,3.720923,0.000000,-1.329410
LINE845,0.000000,0.000000,0.000000,0.000000,0.000000,0.000000
LINE846,82.865606,-0.827034,0.000000,2.696642,0.000000,-1.318090
LINE847,82.616255,-0.829666,0.000000,3.054174,0.000000,1.365263
LINE848,83.559181,-0.821119,0.000000,1.113553,0.000000,-1.549961
LINE849,0.000000,-0.711020,83.405247,3.311865,0.000000,1.703676
LINE850,0.000000,3.748023,0.000000,3.699686,0.000000,-1.380209
LINE851,0.000000,-1.236666,0.000000,2.810961,0.000000,0.970773
LINE852,82.865606,-0.827034,0.000000,1.175658,0.000000,-1.427630
LINE853,82.616255,-0.829666,0.000000,-1.522337,0.000000,1.587956
LINE854,83.559181,-0.821119,0.000000,0.470629,0.000000,-1.553390
LINE855,0.000000,-0.595593,83.405247,3.311865,0.000000,1.750356
LINE856,0.000000,3.731554,0.000000,3.674998,0.000000,-1.332717
LINE857,0.000000,2.939912,0.000000,2.939912,0.000000,-0.145406
LINE858,82.865606,-0.827034,0.000000,1.521855,0.000000,-1.276762
LINE859,41.285802,-0.829800,0.000000,0.550927,0.000000,1.703063
LINE860,41.330453,-0.829533,0.000000,1.544370,0.000000,-1.422531
LINE861,83.559181,-0.821119,0.000000,0.551724,0.000000,-1.553594
LINE862,0.000000,-0.683816,83.405247,3.311865,0.000000,1.691643
LINE863,0.000000,3.871618,0.000000,3.691011,0.000000,-1.255981
LINE864,0.000000,-0.785344,0.000000,3.416836,0.000000,2.236059
LINE865,82.865606,-0.827034,0.000000,2.191967,0.000000,-1.447832
LINE866,83.559181,-0.821119,0.000000,0.593435,0.000000,-1.551842
LINE867,0.000000,-0.531166,83.405247,3.311865,0.000000,1.642987
LINE868,0.000000,3.490713,0.000000,3.469873,0.000000,-1.179340
LINE869,0.000000,-0.201681,0.000000,-0.201681,0.000000,2.996186
LINE870,82.865606,-0.827034,0.000000,0.798375,0.000000,-1.507187
LINE871,83.559181,-0.821119,0.000000,0.529129,0.000000,-1.553882
LINE872,0.000000,-0.711020,41.712271,3.311924,0.000000,1.573475
LINE873,0.000000,0.000000,41.692976,3.311806,0.000000,4.707289
LINE874,0.000000,3.295302,0.000000,3.798473,0.000000,-0.850959
LINE875,0.000000,0.292520,0.000000,3.453105,0.000000,1.638534
LINE876,82.865606,-0.827034,0.000000,1.645998,0.000000,-1.390770
LINE877,83.559181,-0.821119,0.000000,0.566739,0.000000,-1.553075
LINE878,0.000000,-0.852917,41.712271,3.311924,0.000000,1.550118
LINE879,0.000000,3.537722,41.692976,3.311806,0.000000,-0.067519
LINE880,0.000000,0.492943,0.000000,2.624081,0.000000,4.093051
LINE881,0.000000,1.463784,0.000000,1.463784,0.000000,4.561872
LINE882,82.865606,-0.827034,0.000000,0.902053,0.000000,-1.356772
LINE883,83.559181,-0.821119,0.000000,0.530654,0.000000,-1.554020
LINE884,0.000000,-0.531166,41.712271,3.311924,0.000000,1.703676
LINE885,0.000000,0.000000,41.692976,3.311806,0.000000,0.000000
LINE886,82.865606,-0.827034,0.000000,1.017145,0.000000,1.495008
LINE887,41.782733,-0.821069,0.000000,0.730784,0.000000,-1.552820
LINE888,41.776448,-0.821170,0.000000,4.034199,0.000000,1.356871
LINE889,0.000000,0.000000,41.712271,3.311924,0.000000,1.612220
LINE890,82.865606,-0.827034,0.000000,3.239007,0.000000,1.564484
LINE891,41.782733,-0.821069,0.000000,0.976634,0.000000,-1.550590
LINE892,41.776448,-0.821170,0.000000,4.492527,0.000000,1.533619
LINE893,0.000000,-0.531166,41.712271,3.311924,0.000000,1.573475
LINE894,41.463729,-0.826850,0.000000,3.136841,0.000000,1.385896
LINE895,41.401879,-0.827219,0.000000,-0.713987,0.000000,2.285260
LINE896,41.782733,-0.821069,0.000000,1.481579,0.000000,-1.547480
LINE897,41.776448,-0.821170,0.000000,-1.004020,0.000000,4.629169
LINE898,0.000000,0.000000,41.712271,3.311924,0.000000,0.000000
LINE899,41.463729,-0.826850,0.000000,3.433650,0.000000,4.643107
LINE900,41.782733,-0.821069,0.000000,0.696857,0.000000,4.709195
LINE901,41.782733,-0.821069,0.000000,0.380068,0.000000,4.707496
LINE902,41.782733,-0.821069,0.000000,-0.649834,0.000000,4.694727
LINE903,41.782733,-0.821069,0.000000,-0.961821,0.000000,4.582121
LINE904,41.782733,-0.821069,0.000000,3.952154,0.000000,1.584785
LINE905,41.782733,-0.821069,0.000000,2.979807,0.000000,-1.512411
